LAMMPS (22 Jun 2007)
# 2d indenter simulation

dimension	2
boundary	p s p

atom_style	atomic
neighbor	0.3 bin
neigh_modify	delay 5

# create geometry

lattice		hex 0.9
Lattice spacing in x,y,z = 1.1327 1.96189 1.1327
region		box block 0 20 0 10 -0.25 0.25
create_box	2 box
Created orthogonal box = (0 0 -0.283174) to (22.6539 19.6189 0.283174)
create_atoms	1 box
Created 420 atoms

mass		1 1.0
mass		2 1.0

# LJ potentials

pair_style	lj/cut 2.5
pair_coeff	* * 1.0 1.0 2.5

# define groups

region	        1 block INF INF INF 1.25 INF INF
group		lower region 1
60 atoms in group lower
group		mobile subtract all lower
360 atoms in group mobile
set		group lower type 2
  60 settings made for type

# initial velocities

compute	  	new mobile temp
velocity	mobile create 0.2 482748 temp new
fix		1 all nve
fix		2 lower setforce 0.0 0.0 0.0
fix		3 all temp/rescale 100 0.1 0.1 0.01 1.0

# indenter

fix		4 all indent 1000.0 sphere 10 13 0 5.0 vel 0.0 -0.02 0.0
fix		5 all enforce2d

# Run with indenter

timestep	0.003
thermo		1000
thermo_modify	temp new

dump		1 all atom 250 dump.indent
run		30000
Step Temp E_pair E_mol TotEng Press Volume
0          0.2   -3.1727576            0   -3.0020433   -1.6911656    251.71282
Averages over the last 16 of 31 rows, steps 15000 to 30000:
Temp E_pair E_mol TotEng Press Volume
0.119916 -3.0131 0 -2.91075 1.52672 262.242
Loop time of 6.39083 on 1 procs for 30000 steps with 420 atoms

Pair  time (%) = 5.14164 (80.4534)
Neigh time (%) = 0.139093 (2.17645)
Comm  time (%) = 0.0886552 (1.38723)
Outpt time (%) = 0.0423741 (0.663046)
Other time (%) = 0.979067 (15.3199)

# Run without indenter

unfix           4
run		30000
Step Temp E_pair E_mol TotEng Press Volume
30000   0.12014202   -2.9700786            0   -2.8675288    2.1521398    267.72148
Averages over the last 16 of 31 rows, steps 45000 to 60000:
Temp E_pair E_mol TotEng Press Volume
0.118428 -3.07842 0 -2.97734 -0.375594 263.577
Loop time of 6.18357 on 1 procs for 30000 steps with 420 atoms

Pair  time (%) = 5.12197 (82.8319)
Neigh time (%) = 0.145579 (2.35428)
Comm  time (%) = 0.090281 (1.46001)
Outpt time (%) = 0.0419242 (0.677994)
Other time (%) = 0.783816 (12.6758)
